*Heading
** Job name: PoljeU2 Model name: Model-1
** Generated by: Abaqus/CAE 6.12-2
*Preprint, echo=NO, model=NO, history=NO, contact=NO
**
** PARTS
**
*Part, name=specimen
*Node
      1,   16.1611652,   16.1611652
      2,   7.07106781,   7.07106781
      3,          10.,           0.
      4,          25.,           0.
      5,          25.,         12.5
      6,  -7.07106781,  -7.07106781
      7,  -16.1611652,  -16.1611652
      8,        -12.5,         -25.
      9,           0.,         -25.
     10,           0.,         -10.
     11,  -16.1611652,   16.1611652
     12,  -7.07106781,   7.07106781
     13,           0.,          10.
     14,           0.,          25.
     15,        -12.5,          25.
     16,   7.07106781,  -7.07106781
     17,   16.1611652,  -16.1611652
     18,          25.,        -12.5
     19,         12.5,          25.
     20,         -25.,         12.5
** ... 172 like lines cut
*Element, type=CPS4
 1,  26,   1,  27, 114
 2, 114,  27,  28, 113
 3,  28,  29, 116, 113
 4,  29,  30, 115, 116
 5,  30,   2,  31, 115
 6,  31,  32, 119, 115
 7,  32,   3,  33, 119
 8, 115, 119, 120, 116
 9, 119,  33,  34, 120
10, 116, 120, 117, 113
11, 120,  34,  35, 117
12,  35,  36, 121, 117
13,  36,   4,  37, 121
14, 117, 121, 118, 113
15, 121,  37,  38, 118
16,  38,  39, 122, 118
17,  39,   5,  25, 122
18, 118, 122, 114, 113
19, 122,  25,  26, 114
20,  41,   6,  42, 125
** ... 132 like lines cut
*Element, type=CPS4, elset=PHANTOM
1001, 26, 1, 27, 114
1002, 114, 27, 28, 113
1003, 28, 29, 116, 113
1004, 29, 30, 115, 116
1005, 30, 2, 31, 115
1006, 31, 32, 119, 115
1007, 32, 3, 33, 119
1008, 115, 119, 120, 116
1009, 119, 33, 34, 120
1010, 116, 120, 117, 113
1011, 120, 34, 35, 117
1012, 35, 36, 121, 117
1013, 36, 4, 37, 121
1014, 117, 121, 118, 113
1015, 121, 37, 38, 118
1016, 38, 39, 122, 118
1017, 39, 5, 25, 122
1018, 118, 122, 114, 113
1019, 122, 25, 26, 114
1020, 41, 6, 42, 125
** ... 132 like lines cut
*Nset, nset=specimen, generate
   1,  192,    1
*Elset, elset=specimen, generate
   1,  152,    1
** Section: sec
*Solid Section, elset=specimen, material=jeklo
0.8,
*Solid Section, elset=PHANTOM, material=PHANTOM
1.E-12,
*End Part
**  
**
** ASSEMBLY
**
*Assembly, name=Assembly
**  
*Instance, name=specimen-1, part=specimen
*End Instance
**  
*Node
      1,          30.,           0.,           0.
*Node
      2,           0.,          30.,           0.
*Node
      3,         -30.,  -1.77635684e-15,           0.
*Node
      4,           0.,         -30.,           0.
*Nset, nset=ROI, instance=specimen-1, generate
   1,  192,    1
*Elset, elset=ROI, instance=specimen-1, generate
   1,  152,    1
*Nset, nset=levo, instance=specimen-1
  20,  21,  24,  92,  93,  94, 110, 111, 112
*Elset, elset=levo, instance=specimen-1
 102, 104, 105, 106, 146, 148, 149, 150
*Nset, nset=desno, instance=specimen-1
  4,  5, 18, 37, 38, 39, 78, 79, 80
*Elset, elset=desno, instance=specimen-1
 13, 15, 16, 17, 64, 66, 67, 68
*Nset, nset=spodaj, instance=specimen-1
   8,   9,  23,  48,  49,  50, 103, 104, 105
*Elset, elset=spodaj, instance=specimen-1
  26,  28,  29,  30, 127, 129, 130, 131
*Nset, nset=zgoraj, instance=specimen-1
 14, 15, 19, 67, 68, 69, 85, 86, 87
*Elset, elset=zgoraj, instance=specimen-1
 51, 53, 54, 55, 83, 85, 86, 87
*Nset, nset=RP-desno
 1,
*Nset, nset=RP-zgoraj
 2,
*Nset, nset=RP-spodaj
 4,
*Nset, nset=RP-levo
 3,
*Nset, nset=zgorni_rob, instance=specimen-1
 14, 15, 19, 67, 68, 69, 85, 86, 87
*Elset, elset=zgorni_rob, instance=specimen-1
 51, 53, 54, 55, 83, 85, 86, 87
*Nset, nset=_PickedSet24, internal, instance=specimen-1
 14, 15, 19, 67, 68, 69, 85, 86, 87
*Elset, elset=_PickedSet24, internal, instance=specimen-1
 51, 53, 54, 55, 83, 85, 86, 87
*Nset, nset=_PickedSet25, internal, instance=specimen-1
   8,   9,  23,  48,  49,  50, 103, 104, 105
*Nset, nset=_PickedSet25, internal
 4,
*Elset, elset=_PickedSet25, internal, instance=specimen-1
  26,  28,  29,  30, 127, 129, 130, 131
*Elset, elset=_desno_S2, internal, instance=specimen-1
 13, 15, 64, 66
*Elset, elset=_desno_S1, internal, instance=specimen-1
 16, 17, 67, 68
*Surface, type=ELEMENT, name=desno
_desno_S2, S2
_desno_S1, S1
*Elset, elset=_zgoraj_S2, internal, instance=specimen-1
 51, 53, 83, 85
*Elset, elset=_zgoraj_S1, internal, instance=specimen-1
 54, 55, 86, 87
*Surface, type=ELEMENT, name=zgoraj
_zgoraj_S2, S2
_zgoraj_S1, S1
*Elset, elset=_spodaj_S2, internal, instance=specimen-1
  26,  28, 127, 129
*Elset, elset=_spodaj_S1, internal, instance=specimen-1
  29,  30, 130, 131
*Surface, type=ELEMENT, name=spodaj
_spodaj_S2, S2
_spodaj_S1, S1
*Elset, elset=_levo_S2, internal, instance=specimen-1
 102, 104, 146, 148
*Elset, elset=_levo_S1, internal, instance=specimen-1
 105, 106, 149, 150
*Surface, type=ELEMENT, name=levo
_levo_S2, S2
_levo_S1, S1
** Constraint: CP-desno
*Coupling, constraint name=CP-desno, ref node=RP-desno, surface=desno
*Kinematic
** Constraint: CP-levo
*Coupling, constraint name=CP-levo, ref node=RP-levo, surface=levo
*Kinematic
** Constraint: CP-spodaj
*Coupling, constraint name=CP-spodaj, ref node=RP-spodaj, surface=spodaj
*Kinematic
** Constraint: CP-zgoraj
*Coupling, constraint name=CP-zgoraj, ref node=RP-zgoraj, surface=zgoraj
*Kinematic
*End Assembly
** 
** MATERIALS
** 
*Material, name=jeklo
*Elastic
1., 0.3
*Material, name=PHANTOM
*USER MATERIAL, CONSTANTS=1
1.0
*Depvar
1
*User Output Variables
      5,
*INITIAL CONDITIONS,TYPE=SOLUTION
specimen-1.PHANTOM, 1.0
** ----------------------------------------------------------------
** 
** STEP: loading
** 
*Step, name=loading, nlgeom=YES, inc=100000
*Static
0.1, 1., 1e-05, 0.1
** 
** BOUNDARY CONDITIONS
** 
** Name: RP-desno Type: Displacement/Rotation
*Boundary
RP-desno, 1, 1
RP-desno, 2, 2
RP-desno, 6, 6
** Name: RP-levo Type: Displacement/Rotation
*Boundary
RP-levo, 1, 1
RP-levo, 2, 2
RP-levo, 6, 6
** Name: RP-spodaj Type: Displacement/Rotation
*Boundary
RP-spodaj, 1, 1
RP-spodaj, 2, 2, -1.
RP-spodaj, 6, 6
** Name: RP-zgoraj Type: Displacement/Rotation
*Boundary
RP-zgoraj, 1, 1
RP-zgoraj, 2, 2, 1.
RP-zgoraj, 6, 6
** 
** OUTPUT REQUESTS
** 
*Restart, write, frequency=0
** 
** FIELD OUTPUT: F-Output-1
** 
*Output, field
*Node Output, nset=ROI
CF, COORD, RF, RM, RT, TF, U, VF
*Element Output, elset=ROI, directions=YES
BF, CENTMAG, CENTRIFMAG, CORIOMAG, E, EE, ER, ESF1, GRAV, HP, IE, LE, NE, NFORC, NFORCSO, P
PE, PEEQ, PEEQMAX, PEEQT, PEMAG, PEQC, ROTAMAG, S, SALPHA, SE, SEE, SEP, SEPE, SF, SPE, THE
TRNOR, TRSHR, VE, VEEQ
** 
** FIELD OUTPUT: F-Output-2
** 
*Node Output, nset=RP-desno
RF, U
** 
** FIELD OUTPUT: F-Output-3
** 
*Node Output, nset=RP-zgoraj
RF, U
** 
** FIELD OUTPUT: Sile
** 
*Node Output, nset=specimen-1.specimen
CF, RF, RM, RT, TF, VF
*Element Output, elset=specimen-1.specimen, directions=YES
BF, CENTMAG, CENTRIFMAG, CORIOMAG, ESF1, GRAV, HP, NFORC, NFORCSO, P, ROTAMAG, SF, TRNOR, TRSHR
** 
** HISTORY OUTPUT: H-Output-1
** 
*Output, history, variable=PRESELECT
*End Step
